https://github.com/pvlib/pvlib-python
https://github.com/SunPower/pvfactors
https://github.com/renewables-ninja/gsee
https://github.com/SunPower/PVMismatch
https://github.com/NREL/rdtools
https://github.com/ColasGael/Machine-Learning-for-Solar-Energy-Prediction
https://github.com/zae-bayern/elpv-dataset
https://github.com/oemof/feedinlib
https://github.com/pvedu/photovoltaic
https://github.com/pvcaptest/pvcaptest
https://github.com/danieljfarrell/pvtrace
https://github.com/NREL/SolarPILOT
https://github.com/slacgismo/solar-data-tools
https://github.com/tdcosim/SolarPV-DER-simulation-utility
https://github.com/NREL/bifacial_radiance
https://github.com/PV-Lab/autoXRD
https://github.com/PV-Lab/BayesProcess
https://github.com/qpv-research-group/solcore5
https://github.com/squishykid/solax
https://github.com/NREL/bifacialvf
https://github.com/oscarperpinan/solar
https://github.com/SolarTherm/SolarTherm
https://github.com/LibreSolar/bms-firmware
https://github.com/LibreSolar/charge-controller-firmware
https://github.com/openclimatefix/pvoutput
https://github.com/openclimatefix/predict_pv_yield
https://github.com/alan-turing-institute/solar-panel-detection
https://github.com/aqreed/solarpy
https://github.com/meltaxa/solariot
https://github.com/pvlib/pvanalytics
https://github.com/PerovskiteSCModelling/IonMonger
https://github.com/qpv-research-group/rayflare
https://github.com/DuraMAT/pv-terms
https://github.com/slacgismo/StatisticalClearSky
https://github.com/RentadroneCL/Photovoltaic_Fault_Detector
https://github.com/ropensci/nasapower
https://github.com/greco-project/pvcompare
https://github.com/NREL/SolTrace
https://github.com/WMD-group/CarrierCapture.jl
https://github.com/ladybug-tools/honeybee
https://github.com/opensolarproject/OSPController
https://github.com/danjulio/MPPT-Solar-Charger
https://github.com/iat-cener/tonatiuh
https://github.com/kdmayer/PV4GER
https://github.com/BreakingBytes/pvfree
https://github.com/pingswept/pysolar
https://github.com/NREL/PV_ICE
https://github.com/openclimatefix/nowcasting
https://github.com/SolarArbiter/solarforecastarbiter-core
https://github.com/slacgismo/pv-system-profiler
https://github.com/Lkruitwagen/solar-pv-global-inventory
https://github.com/NREL/dgen
https://github.com/solectrus/solectrus
https://github.com/IEAWindTask37/IEA-15-240-RWT
https://github.com/wind-python/windpowerlib
https://github.com/turbinesFoam/turbinesFoam
https://github.com/Exawind/nalu-wind
https://github.com/OpenFAST/openfast
https://github.com/Exawind/amr-wind
https://github.com/NREL/OpenOA
https://github.com/NREL/ROSCO
https://github.com/NREL/floris
https://github.com/FZJ-IEK3-VSA/windtools
https://github.com/WISDEM/WISDEM
https://github.com/WISDEM/WOMBAT
https://github.com/WISDEM/LandBOSSE
https://github.com/OpenMDAO/OpenMDAO
https://github.com/YsoSirius/windfarmGA
https://github.com/lkev/wtphm
https://github.com/WISDEM/AirfoilPreppy
https://github.com/signals-dev/GreenGuard
https://github.com/WISDEM/ORBIT
https://github.com/nmstreethran/WindTurbineClassification
https://github.com/audunarn/ANYstructure
https://github.com/python-windrose/windrose
https://github.com/ImperialCollegeLondon/sharpy
https://github.com/NREL/WindSE
https://github.com/WISDEM/WEIS
https://github.com/YingyiLiu/HAMS
https://github.com/brightwind-dev/brightwind
https://github.com/NREL/NRWAL
https://github.com/ebranlard/welib
https://github.com/IEA-Task-43/digital_wra_data_standard
https://github.com/awebox/awebox
https://github.com/byuflowlab/CCBlade.jl
https://github.com/jdiasn/lidarwind
https://github.com/byuflowlab/FLOWUnsteady
https://github.com/HiDef-Aerial-Surveying/stochLAB
https://github.com/SNL-WaterPower/WecOptTool
https://github.com/SNL-WaterPower/CACTUS
https://github.com/energy-modelling-toolkit/hydro-power-database
https://github.com/MHKiT-Software/MHKiT-Python
https://github.com/hydro-python/hydropowerlib
https://github.com/NREL-SIIP/HydroPowerSimulations.jl
https://github.com/simulatino/OpenHPL
https://github.com/WEC-Sim/WEC-Sim
https://github.com/BEMRosetta/BEMRosetta
https://github.com/mancellin/capytaine
https://github.com/swd-turner/reservoir
https://github.com/MassimoCimmino/pygfunction
https://github.com/wouterpeere/GHEtool
https://github.com/charxie/multiphysics
https://github.com/lanl/FEHM
https://github.com/CalebBell/thermo
https://github.com/waiwera/waiwera
https://github.com/ICWallis/fractoolbox
https://github.com/SmartTensors/GeoThermalCloud.jl
https://github.com/ajacquey/golem
https://github.com/sashahafner/biogas
https://github.com/BioSTEAMDevelopmentGroup/biosteam
https://github.com/alexliberzonlab/Multiscale_Ulva
https://github.com/PecanProject/bety
https://github.com/FZJ-IEK3-VSA/bslib
https://github.com/foxBMS/foxbms
https://github.com/ECSHackWeek/impedance.py
https://github.com/pybamm-team/PyBaMM
https://github.com/pybamm-team/liionpack
https://github.com/EnnoidMe/ENNOID-BMS
https://github.com/jepegit/cellpy
https://github.com/rdbraatz/data-driven-prediction-of-battery-cycle-life-before-capacity-degradation
https://github.com/rlogiacco/BatterySense
https://github.com/TRI-AMDD/beep
https://github.com/snl-quest/snl-quest
https://github.com/Samuel-Buteau/universal-battery-database
https://github.com/davidhowey/SLIDE
https://github.com/batterysim/equiv-circ-model
https://github.com/dsr-18/long-live-the-battery
https://github.com/nealde/Ampere
https://github.com/epri-dev/StorageVET
https://github.com/offgridsystems/Documents
https://github.com/ElektrikAkar/3d_milp
https://github.com/lionsimbatoolbox/LIONSIMBA
https://github.com/BattMoTeam/BattMo
https://github.com/ECSIM/opem
https://github.com/ECSIM/gopem
https://github.com/ECSIM/pem-dataset1
https://github.com/FZJ-IEK3-VSA/HIM
https://github.com/e2nIEE/pandapipes
https://github.com/sandialabs/hyram
https://github.com/lanl-ansi/GasModels.jl
https://github.com/mathworks/Fuel-Cell-Vehicle-Model-Simscape
https://github.com/Virtual-FCS/VirtualFCS
https://github.com/NREL/SAM
https://github.com/IIT-EnergySystemModels/openTEPES
https://github.com/PowerGenome/PowerGenome
https://github.com/pyaf/load_forecasting
https://github.com/NREL/REopt_Lite_API
https://github.com/tum-ens/urbs
https://github.com/energy-modelling-toolkit/Dispa-SET
https://github.com/calliope-project/calliope
https://github.com/calliope-project/euro-calliope
https://github.com/OSeMOSYS/OSeMOSYS
https://github.com/VUB-HYDR/REVUB
https://github.com/FZJ-IEK3-VSA/FINE
https://github.com/com-pas/compas-architecture
https://github.com/NREL-SIIP/PowerSimulations.jl
https://github.com/NREL-SIIP/PowerSystems.jl
https://github.com/balmorelcommunity/Balmorel
https://github.com/OpenEnergyPlatform/ontology
https://github.com/UNSW-CEEM/nempy
https://github.com/bje-/NEMO
https://github.com/niclasmattsson/GlobalEnergyGIS
https://github.com/AntaresSimulatorTeam/Antares_Simulator
https://github.com/GMLC-TDC/HELICS
https://github.com/oemof/oemof-solph
https://github.com/oemof/oemof-thermal
https://github.com/openENTRANCE/nomenclature
https://github.com/JuliaEnergy/Joulia.jl
https://github.com/IDAES/idaes-pse
https://github.com/TemoaProject/temoa
https://github.com/ie3-institute/PowerSystemDataModel
https://github.com/PyPSA/pypsa-eur-sec
https://github.com/rte-antares-rpackage/antaresViz
https://github.com/rte-antares-rpackage/antaresRead
https://github.com/Spine-project/Spine-Toolbox
https://github.com/oemof/demandlib
https://github.com/reegis/deflex
https://github.com/ADGEfficiency/energy-py-linear
https://github.com/switch-model/switch
https://github.com/leonardgoeke/AnyMOD.jl
https://github.com/FlexiGIS/FlexiGIS
https://github.com/NREL/reVX
https://github.com/YoungFaithful/CapacityExpansion.jl
https://github.com/sogno-platform/dpsim
https://github.com/GenXProject/GenX
https://github.com/OpenEnergyPlatform/oeplatform
https://github.com/PyPSA/PyPSA
https://github.com/oemof/oemof
https://github.com/tum-ens/pyGRETA
https://github.com/FZJ-IEK3-VSA/RESKit
https://github.com/powsybl/powsybl-core
https://github.com/powsybl/powsybl-open-loadflow
https://github.com/MATPOWER/matpower
https://github.com/energyRt/energyRt
https://github.com/rl-institut/multi-vector-simulator
https://github.com/kamal0013/PowNet
https://github.com/OpenIPSL/OpenIPSL
https://github.com/RAMP-project/RAMP
https://github.com/richard-weinhold/pomato
https://github.com/RamiKrispin/USelectricity
https://github.com/NREL/reV
https://github.com/openCEMorg/openCEM
https://github.com/ADGEfficiency/energy-py
https://github.com/FZJ-IEK3-VSA/glaes
https://github.com/OnSSET/onsset
https://github.com/PyPSA/whobs-server
https://github.com/intelligent-environments-lab/CityLearn
https://github.com/IBM/rl-testbed-for-energyplus
https://github.com/FZJ-IEK3-VSA/tsam
https://github.com/holgerteichgraeber/TimeSeriesClustering.jl
https://github.com/blue-marble/gridpath
https://github.com/kbaranko/peaky-finders
https://github.com/derevirn/renewcast
https://github.com/cuihantao/andes
https://github.com/Breakthrough-Energy/REISE.jl
https://github.com/EnergyTransition/ESDL
https://github.com/slacgismo/TESS
https://github.com/adamgreenhall/minpower
https://github.com/MaREI-EPMG/times-ireland-model
https://github.com/dpinney/omf
https://github.com/Thales1330/PSP
https://github.com/Energy-Innovation/eps-us
https://github.com/TemoaProject/oeo
https://github.com/OpenSTEF/openstef
https://github.com/Matt-Brigida/EIAdata
https://github.com/PyPSA/technology-data
https://github.com/Lkruitwagen/global-fossil-fuel-supply-chain
https://github.com/DrafProject/draf
https://github.com/pypsa-meets-earth/pypsa-earth
https://github.com/IMMM-SFA/tell
https://github.com/PREP-NexT/PREP-SHOT
https://github.com/idaholab/HYBRID
https://github.com/OpenEnergyDashboard/OED
https://github.com/OpenEMS/openems
https://github.com/openeemeter/eemeter
https://github.com/opfab/operatorfabric-core
https://github.com/Energy-Sparks/energy-sparks
https://github.com/openenergymonitor/emonpi
https://github.com/openenergymonitor/EmonLib
https://github.com/emoncms/emoncms
https://github.com/SeitaBV/flexmeasures
https://github.com/openenergymonitor/STM32
https://github.com/e2nIEE/simbench
https://github.com/grid-parity-exchange/Egret
https://github.com/PyPSA/pypsa-eur
https://github.com/quintel/etengine
https://github.com/quintel/etmodel
https://github.com/OSGP/open-smart-grid-platform
https://github.com/lanl-ansi/PowerModels.jl
https://github.com/lanl-ansi/PowerModelsAnnex.jl
https://github.com/power-grid-lib/pglib-opf
https://github.com/MarvinLer/pypownet
https://github.com/rte-france/Grid2Op
https://github.com/openego/eDisGo
https://github.com/rl-institut/offgridders
https://github.com/GridMod/RTS-GMLC
https://github.com/upb-lea/openmodelica-microgrid-gym
https://github.com/JuliaEnergy/PowerDynamics.jl
https://github.com/NREL-SIIP/InfrastructureSystems.jl
https://github.com/SanPen/GridCal
https://github.com/energywebfoundation/origin
https://github.com/gridsingularity/gsy-e
https://github.com/SonyCSL/APIS
https://github.com/Total-RD/pymgrid
https://github.com/EPGOxford/OPEN
https://github.com/slacgismo/gridlabd
https://github.com/robinhenry/gym-anm
https://github.com/transportenergy/database
https://github.com/Breakthrough-Energy/PowerSimData
https://github.com/Azure/opendigitaltwins-energygrid
https://github.com/ie3-institute/simona
https://github.com/PowerGridModel/power-grid-model
https://github.com/opennem/opennem-fe
https://github.com/catalyst-cooperative/pudl
https://github.com/wri/global-power-plant-database
https://github.com/EnergieID/entsoe-py
https://github.com/Open-Power-System-Data/time_series
https://github.com/Open-Power-System-Data/renewable_power_plants
https://github.com/Open-Power-System-Data/conventional_power_plants
https://github.com/OpenEnergyPlatform/open-MaStR
https://github.com/FRESNA/powerplantmatching
https://github.com/cristianst85/GeoNuclearData
https://github.com/thomastu/pyEIA
https://github.com/ropensci/eia
https://github.com/PyPSA/atlite
https://github.com/m4rz910/NYISOToolkit
https://github.com/dazhiyang/SolarData
https://github.com/RamiKrispin/UKgrid
https://github.com/RamiKrispin/USgrid
https://github.com/SanPen/ESIOS
https://github.com/owid/energy-data
https://github.com/enechange/EnergyDataSimulationChallenge
https://github.com/DemandRegioTeam/disaggregator
https://github.com/systemcatch/eiapy
https://github.com/OSUKED/Power-Station-Dictionary
https://github.com/OSUKED/ElexonDataPortal
https://github.com/kmax12/isodata
https://github.com/NREL/sup3r
https://github.com/trynthink/scout
https://github.com/ibpsa/project1-boptest
https://github.com/ibpsa/project1-boptest-gym
https://github.com/hpxmlwg/hpxml
https://github.com/NREL/hescore-hpxml
https://github.com/FZJ-IEK3-VSA/LoadProfileGenerator
https://github.com/buds-lab/the-building-data-genome-project
https://github.com/VOLTTRON/volttron
https://github.com/NREL/EnergyPlus
https://github.com/NREL/OpenStudio
https://github.com/HIT2GAP-EU-PROJECT/bemserver
https://github.com/SEED-platform/seed
https://github.com/EcotopeResearch/HPWHsim
https://github.com/NREL/OpenStudio-ERI
https://github.com/NREL/OpenStudio-HPXML
https://github.com/RWTH-EBC/AixLib
https://github.com/RWTH-EBC/TEASER
https://github.com/RWTH-EBC/pyCity
https://github.com/open-ideas/IDEAS
https://github.com/oemof/tespy
https://github.com/architecture-building-systems/RC_BuildingSimulator
https://github.com/architecture-building-systems/CityEnergyAnalyst
https://github.com/lbl-srg/modelica-buildings
https://github.com/open-ideas/StROBe
https://github.com/mdh266/NYCBuildingEnergyUse
https://github.com/jonathanrjpereira/Smart-Energy-Monitor
https://github.com/HotMaps/Hotmaps-toolbox-service
https://github.com/EDF-TREE/BuildSysPro
https://github.com/lbl-srg/MPCPy
https://github.com/lbl-srg/obc
https://github.com/cstb/citygml-energy
https://github.com/Planheat/Planheat-Tool
https://github.com/UdK-VPT/BuildingSystems
https://github.com/ibpsa/modelica-ibpsa
https://github.com/ibpsa/project1
https://github.com/TEB-model/teb
https://github.com/FZJ-IEK3-VSA/tsib
https://github.com/oemof/DHNx
https://github.com/buds-lab/building-data-genome-project-2
https://github.com/CenterForTheBuiltEnvironment/pythermalcomfort
https://github.com/CenterForTheBuiltEnvironment/comfort_tool
https://github.com/NREL/resstock
https://github.com/dsmrreader/dsmr-reader
https://github.com/LBNL-ETA/MSWH
https://github.com/hongyuanjia/eplusr
https://github.com/BrickSchema/Brick
https://github.com/LBNL-JCI-ICF/better
https://github.com/nilmtk/nilmtk
https://github.com/volkszaehler/volkszaehler.org
https://github.com/volkszaehler/mbmd
https://github.com/FZJ-IEK3-VSA/HiSim
https://github.com/RE-Lab-Projects/hplib
https://github.com/ecmwf-projects/thermofeel
https://github.com/CenterForTheBuiltEnvironment/clima
https://github.com/bigladder/kiva
https://github.com/UMEP-dev/UMEP
https://github.com/ladybug-tools/uwg
https://github.com/ropensci/stplanr
https://github.com/JRCSTU/CO2MPAS-TA
https://github.com/JRCSTU/wltp
https://github.com/NewMotion/ocpp
https://github.com/mobilityhouse/ocpp
https://github.com/NewMotion/docile-charge-point
https://github.com/maasglobal/maas-schemas
https://github.com/coopcycle/coopcycle-web
https://github.com/EVNotify/EVNotify
https://github.com/diowa/icare
https://github.com/STS-Rosario/carpoolear
https://github.com/OpenEVSE/open_evse
https://github.com/OpenEVSE/ESP8266_WiFi_v2.x
https://github.com/CanalTP/navitia
https://github.com/vonfeng/DeepMove
https://github.com/openmobilityfoundation/mobility-data-specification
https://github.com/mdolab/openconcept
https://github.com/openchargemap/ocm-system
https://github.com/andig/evcc
https://github.com/RWTH-i5-IDSG/steve
https://github.com/V2GClarity/RISE-V2G
https://github.com/sash-ko/simobility
https://github.com/vocol/mobivoc
https://github.com/grote/Transportr
https://github.com/OneBusAway/onebusaway-android
https://github.com/google/transitfeed
https://github.com/BlinkTagInc/node-gtfs
https://github.com/schildbach/public-transport-enabler
https://github.com/grote/osm2gtfs
https://github.com/systragroup/quetzal
https://github.com/marlinarnz/quetzal_germany
https://github.com/Ifsttar/NoiseModelling
https://github.com/Ifsttar/NoiseCapture
https://github.com/ropensci/bikedata
https://github.com/cyclosm/cyclosm-cartocss-style
https://github.com/upb-lea/gym-electric-motor
https://github.com/LBNL-UCB-STI/beam
https://github.com/ubahnverleih/WoBike
https://github.com/PierrickP/multicycles
https://github.com/eskerda/pybikes
https://github.com/OpenChargingCloud/ChargyDesktopApp
https://github.com/OpenChargingCloud/WWCP_OCPP
https://github.com/OpenChargingCloud/WWCP_Core
https://github.com/RAMP-project/RAMP-mobility
https://github.com/ITSLeeds/pct
https://github.com/goat-community/goat
https://github.com/ATFutures/gtfs-router
https://github.com/cityflow-project/CityFlow
https://github.com/d-wasserman/Complete_Street_Rule
https://github.com/jrester/tesla_powerwall
https://github.com/gsoh/VED
https://github.com/NABSA/gbfs
https://github.com/bikeindex/bike_index
https://github.com/voltbras/go-ocpp
https://github.com/johan12345/EVMap
https://github.com/SAP/emobility-smart-charging
https://github.com/chargeprice/open-ev-data
https://github.com/SmartEVSE/smartevse
https://github.com/andmos/BikeshareClient
https://github.com/mszell/bikenwgrowth
https://github.com/a-b-street/abstreet
https://github.com/enviroCar/enviroCar-app
https://github.com/EVerest/everest
https://github.com/streetmix/streetmix
https://github.com/transitland/transitland-atlas
https://github.com/cyclestreets/cyclestreets-r
https://github.com/bcgov/tfrs
https://github.com/contrailcirrus/pycontrails
https://github.com/Traace-co/ev-footprint
https://github.com/mobility-team/mobility
https://github.com/NREL/Industry-Energy-Tool
https://github.com/NREL/Industry-energy-data-book
https://github.com/energy-market-methods/caltrack
https://github.com/OpenModelica/OpenModelica
https://github.com/hubblo-org/scaphandre
https://github.com/fvaleye/tracarbon
https://github.com/greensoftwarelab/Energy-Languages
https://github.com/responsibleproblemsolving/energy-usage
https://github.com/thegreenwebfoundation/green-cost-explorer
https://github.com/sosy-lab/cpu-energy-meter
https://github.com/powerapi-ng/powerapi
https://github.com/marmelab/argos
https://github.com/patch-technology/patch-node
https://github.com/thegreenwebfoundation/co2.js
https://github.com/kylemcdonald/nvidia-co2
https://github.com/Organic-Basics/ob-low-impact-website
https://github.com/kylemcdonald/cryptoart-footprint
https://github.com/cloud-carbon-footprint/cloud-carbon-footprint
https://github.com/powerapi-ng/pyJoules
https://github.com/GoogleCloudPlatform/region-carbon-info
https://github.com/dos-group/leaf
https://github.com/kylemcdonald/ethereum-nft-activity
https://github.com/kube-green/kube-green
https://github.com/cnumr/ecoCode
https://github.com/sustainable-computing-io/kepler
https://github.com/Green-Software-Foundation/software_carbon_intensity
https://github.com/jawache/principles-green
https://github.com/thegreenwebfoundation/grid-intensity-go
https://github.com/sb-ai-lab/Eco2AI
https://github.com/mlco2/impact
https://github.com/mlco2/codecarbon
https://github.com/Breakend/experiment-impact-tracker
https://github.com/dos-group/lets-wait-awhile
https://github.com/Boavizta/environmental-footprint-data
https://github.com/carbonalyser/Carbonalyser
https://github.com/lfwa/carbontracker
https://github.com/daviddao/green-ai
https://github.com/Green-Software-Foundation/carbon-aware-sdk
https://github.com/green-code-initiative/ecoCode
https://github.com/alexnathanson/solar-protocol
https://github.com/joular/powerjoular
https://github.com/GreenAlgorithms/green-algorithms-tool
https://github.com/envite-consulting/camunda-carbon-reductor
https://github.com/rollthecloudinc/quell
https://github.com/tmrowco/electricitymap-contrib
https://github.com/singularity-energy/open-grid-emissions
https://github.com/protea-earth/carbon_footprint
https://github.com/milankl/CarbonFootprintEGU
https://github.com/tmrowco/bloom-contrib
https://github.com/NMF-earth/nmf-app
https://github.com/energyPATHWAYS/EnergyPATHWAYS
https://github.com/opentaps/blockchain-carbon-accounting
https://github.com/acircleda/footprint
https://github.com/KKulma/intensegRid
https://github.com/kansoapp/carbonfact-models
https://github.com/climatiq/python-oefdb-sdk
https://github.com/DrafProject/elmada
https://github.com/openclimatedata/unfccc-detailed-data-by-party
https://github.com/GranthamImperial/silicone
https://github.com/jdechalendar/gridemissions
https://github.com/Open-Earth-Foundation/OpenClimate
https://github.com/scope3data/methodology
https://github.com/g-dolphin/WorldCarbonPricingDatabase
https://github.com/UNSW-CEEM/NEMED
https://github.com/RMI/steel-guidance
https://github.com/IDEMSInternational/carbonr
https://github.com/carbonplan/cdr-database
https://github.com/CCSI-Toolset/FOQUS
https://github.com/GEOSX/GEOSX
https://github.com/hsbay/cdrmex
https://github.com/undp/carbon-registry
https://github.com/carbonplan/forest-risks
https://github.com/hashgraph/guardian
https://github.com/bcgov/ghg-emissions-indicator
https://github.com/dataforgoodfr/batch7_satellite_ges
https://github.com/openclimatedata/global-carbon-budget
https://github.com/emissions-api/emissions-api
https://github.com/atmoschem/eixport
https://github.com/atmoschem/EmissV
https://github.com/JGCRI/CEDS
https://github.com/openclimatedata/national-climate-plans
https://github.com/quishqa/PyChEmiss
https://github.com/owid/co2-data
https://github.com/uataq/X-STILT
https://github.com/uataq/stilt
https://github.com/arbrandt/OPGEE
https://github.com/openghg/openghg
https://github.com/OpenCarbonWatch/Website
https://github.com/satish1901/Methane-detection-from-hyperspectral-imagery
https://github.com/CMU-CREATE-Lab/deep-smoke-machine
https://github.com/Ribbit-Network/ribbit-network-frog-sensor
https://github.com/tianjialiu/FIRECAM
https://github.com/mmb-carb/ESTA
https://github.com/milankl/FlyingClimate
https://github.com/OSUKED/ETS-Watch
https://github.com/HSG-AIML/IndustrialSmokePlumeDetection
https://github.com/ICOS-Carbon-Portal/pylib
https://github.com/fossilfuelregistry/portal-v2
https://github.com/Novarizark/easy-era5-trck
https://github.com/icra/ecam
https://github.com/USEPA/emf
https://github.com/USEPA/EPA_MOVES_Model
https://github.com/USEPA/EPA_ALPHA_Model
https://github.com/ipeaGIT/gtfs2emis
https://github.com/geoschem/HEMCO
https://github.com/BONSAMURAIS/bonsai
https://github.com/brightway-lca/brightway2
https://github.com/LCA-ActivityBrowser/activity-browser
https://github.com/romainsacchi/carculator
https://github.com/USEPA/ElectricityLCI
https://github.com/uslci-admin/uslci-content
https://github.com/GreenDelta/olca-app
https://github.com/GreenDelta/openlca-python-tutorial
https://github.com/scyjth/biosteam_lca
https://github.com/oie-mines-paristech/lca_algebraic
https://github.com/Vizzuality/trase
https://github.com/QSD-Group/QSDsan
https://github.com/romainsacchi/premise
https://github.com/USEPA/useeior
https://github.com/USEPA/Federal-LCA-Commons-Elementary-Flow-List
https://github.com/konstantinstadler/pymrio
https://github.com/USEPA/flowsa
https://github.com/USEPA/LCIAformatter
https://github.com/ONEARMY/precious-plastic
https://github.com/pedropro/TACO
https://github.com/circularfashion/cf-circularity-id-standard
https://github.com/sangminwoo/RecycleNet
https://github.com/garythung/trashnet
https://github.com/OpenLitterMap/openlittermap-web
https://github.com/CMLPlatform/pycirk
https://github.com/WWF-Deutschland/marine-plastic-explorer
https://github.com/NASA-IMPACT/marine_debris_ML
https://github.com/TheOceanCleanupAlgorithms/ADVECTOR
https://github.com/surfriderfoundationeurope/The-Plastic-Origins-Project
https://github.com/marine-debris/marine-debris.github.io
https://github.com/wimlds-trojmiasto/detect-waste
https://github.com/santiago-sanitation-systems/Santiago.jl
https://github.com/CMLPlatform/ramascene
https://github.com/CMLPlatform/CircuMAT
https://github.com/SwolfPy-Project/swolfpy
https://github.com/wri/carbon-budget
https://github.com/apburt/treeseg
https://github.com/forestgeo/fgeo
https://github.com/forestgeo/fgeo.biomass
https://github.com/umr-amap/BIOMASS
https://github.com/MetOffice/forest
https://github.com/openforis/sepal
https://github.com/forc-db/ForC
https://github.com/tiagodc/TreeLS
https://github.com/InverseTampere/TreeQSM
https://github.com/weecology/DeepLidar
https://github.com/esowc/wildfire-forecasting
https://github.com/ecmwf/caliver
https://github.com/Vizzuality/gfw
https://github.com/wri/gfw-mapbuilder
https://github.com/ropensci/taxize
https://github.com/ropensci/rgbif
https://github.com/globalbioticinteractions/globalbioticinteractions
https://github.com/Jean-Romain/lidR
https://github.com/mparkan/Digital-Forestry-Toolbox
https://github.com/brycefrank/pyfor
https://github.com/weecology/DeepForest
https://github.com/WSWUP/pymetric
https://github.com/weecology/NeonTreeEvaluation
https://github.com/manaakiwhenua/pycrown
https://github.com/akamoske/canopyLazR
https://github.com/philwilkes/forestlas
https://github.com/OpenTreeMap/otm-core
https://github.com/weecology/DeepTreeAttention
https://github.com/ropensci/rebird
https://github.com/ropensci/rredlist
https://github.com/woodcrafty/PyETo
https://github.com/ltrr-arizona-edu/burnr
https://github.com/sollano/forestmangr
https://github.com/jneme910/CART
https://github.com/DS3Lab/forest-prediction
https://github.com/Greensway/BIRDS
https://github.com/danforthcenter/plantcv
https://github.com/NGEET/fates
https://github.com/ghislainv/forestatrisk
https://github.com/Plant-Root-Soil-Interactions-Modelling/CRootBox
https://github.com/pyronear/pyro-vision
https://github.com/CornellLabofOrnithology/auk
https://github.com/ropensci/spocc
https://github.com/VIAME/VIAME
https://github.com/NOAA-EDAB/ecodata
https://github.com/bullocke/coded
https://github.com/openplantpathology/OpenPlantPathology
https://github.com/allisonhorst/palmerpenguins
https://github.com/iobis/robis
https://github.com/ropensci/rfishbase
https://github.com/p2irc/deepplantphenomics
https://github.com/JuliaOcean/PlanktonIndividuals.jl
https://github.com/red-list-ecosystem/redlistr
https://github.com/AtlasOfLivingAustralia/ALA4R
https://github.com/FRBCesab/worldpa
https://github.com/ghislainv/pywdpa
https://github.com/prioritizr/wdpar
https://github.com/traitecoevo/plant
https://github.com/Envirometrix/PNVmaps
https://github.com/alan-turing-institute/monitoring-ecosystem-resilience
https://github.com/bluegreen-labs/phenocamr
https://github.com/pinskylab/OceanAdapt
https://github.com/forc-db/GROA
https://github.com/Plant-for-the-Planet-org/treecounter-app
https://github.com/microsoft/aerial_wildlife_detection
https://github.com/pyronear/pyro-risks
https://github.com/Plant-for-the-Planet-org/treemapper
https://github.com/jbferet/biodivMapR
https://github.com/protontypes/continuous-reforestation
https://github.com/DiversiTree/TreeDiversity
https://github.com/ghislainv/forestatrisk-tropics
https://github.com/martibosch/detectree
https://github.com/wri/sentinel-tree-cover
https://github.com/Bioverse-Labs/deep-learning
https://github.com/protect-earth/TreeTracker
https://github.com/carlos-alberto-silva/rGEDI
https://github.com/bcgov/wps
https://github.com/shmh40/detectreeRGB
https://github.com/karthikraja95/fsdl_deforestation_detection
https://github.com/ytarazona/ForesToolboxRS
https://github.com/technologiestiftung/giessdenkiez-de
https://github.com/MoBiodiv/mobr
https://github.com/SKrisanski/FSCT
https://github.com/MAAP-Project/maap-documentation
https://github.com/VEZY/DynACof
https://github.com/WildMeOrg/Wildbook
https://github.com/Ecotrust/forestplanner
https://github.com/PecanProject/pecan
https://github.com/bi0m3trics/spanner
https://github.com/Greenstand/treetracker-android
https://github.com/andrew-plowright/ForestTools
https://github.com/azvoleff/gfcanalysis
https://github.com/earthlab/firedpy
https://github.com/BioPAL/BioPAL
https://github.com/eco-hydro/phenofit
https://github.com/usa-npn/rnpn
https://github.com/forestobservatory/cfo-api
https://github.com/mapme-initiative/mapme.biodiversity
https://github.com/prioritizr/prioritizr
https://github.com/CatalogueOfLife/general
https://github.com/tdwg/dwc
https://github.com/inaturalist/inaturalist
https://github.com/pyinat/pyinaturalist
https://github.com/SpeciesFileGroup/taxonworks
https://github.com/adokter/bioRad
https://github.com/jeffreyevans/spatialEco
https://github.com/ropensci/allodb
https://github.com/EcologicalSemantics/ecocore
https://github.com/cdmuir/photosynthesis
https://github.com/hunter-stanke/rFIA
https://github.com/shawnlaffan/biodiverse
https://github.com/microsoft/CameraTraps
https://github.com/bluegreen-labs/phenor
https://github.com/EcoJulia/EcoSISTEM.jl
https://github.com/bmaitner/RBIEN
https://github.com/pyinat/naturtag
https://github.com/ebird/ebirdst
https://github.com/IUCNN/IUCNN
https://github.com/gbif/ipt
https://github.com/adamlilith/enmSdmX
https://github.com/pbs-assess/sdmTMB
https://github.com/USDAForestService/ForestVegetationSimulator
https://github.com/ices-tools-prod/icesDatras
https://github.com/ices-tools-prod/icesTAF
https://github.com/cp-PYFOREST/Land-Use-Assessment
https://github.com/HemingNM/ENMwizard
https://github.com/firetools/qgis2fds
https://github.com/PatBall1/detectree2
https://github.com/acannistra/planet-snowcover
https://github.com/nansencenter/sea_ice_drift
https://github.com/smrt-model/smrt
https://github.com/OGGM/oggm
https://github.com/CICE-Consortium/CICE
https://github.com/pism/pism
https://github.com/CICE-Consortium/Icepack
https://github.com/weiji14/deepbedmap
https://github.com/wrightni/OSSP
https://github.com/fspaolo/captoolkit
https://github.com/vannizhang/sea-ice
https://github.com/NOAA-GFDL/SIS2
https://github.com/RichardEssery/FSM2
https://github.com/GEUS-PROMICE/freshwater
https://github.com/PennyHow/PyTrx
https://github.com/ECCO-GROUP/ECCO-v4-Python-Tutorial
https://github.com/icesat2py/icepyx