IEAWindTask37/IEA-15-240-RWT
wind-python/windpowerlib
turbinesFoam/turbinesFoam
Exawind/nalu-wind
OpenFAST/openfast
Exawind/amr-wind
NREL/OpenOA
NREL/ROSCO
NREL/floris
FZJ-IEK3-VSA/windtools
WISDEM/WISDEM
WISDEM/WOMBAT
WISDEM/LandBOSSE
OpenMDAO/OpenMDAO
YsoSirius/windfarmGA
lkev/wtphm
WISDEM/AirfoilPreppy
signals-dev/GreenGuard
WISDEM/ORBIT
nmstreethran/WindTurbineClassification
audunarn/ANYstructure
python-windrose/windrose
ImperialCollegeLondon/sharpy
NREL/WindSE
WISDEM/WEIS
YingyiLiu/HAMS
brightwind-dev/brightwind
NREL/NRWAL
ebranlard/welib
IEA-Task-43/digital_wra_data_standard
awebox/awebox
byuflowlab/CCBlade.jl
jdiasn/lidarwind
byuflowlab/FLOWUnsteady
HiDef-Aerial-Surveying/stochLAB
